*Heading
** Job name: 500unit Model name: Model-1
** Generated by: Abaqus/CAE 6.14-2
*Preprint, echo=NO, model=NO, history=NO, contact=NO
**
** PARTS
**
*Part, name=Part-1
*Node
      1,           0., 0.0808029622
      2,           0.,  0.072722666
      3,           0., 0.0646423697
      4,           0., 0.0565620735
      5,           0., 0.0484817773
      6,           0., 0.0404014811
      7,           0., 0.0323211849
      8,           0., 0.0242408887
      9,           0., 0.0161605924
     10,           0., 0.00808029622
     11,           0.,           0.
     12, 0.00800000038, 0.0808029622
     13, 0.00800000038,  0.072722666
     14, 0.00800000038, 0.0646423697
     15, 0.00800000038, 0.0565620735
     16, 0.00800000038, 0.0484817773
     17, 0.00800000038, 0.0404014811
     18, 0.00800000038, 0.0323211849
     19, 0.00800000038, 0.0242408887
     20, 0.00800000038, 0.0161605924
** ... 541 like lines cut
*Element, type=CPS4I
  1,   1,   2,  13,  12
  2,   2,   3,  14,  13
  3,   3,   4,  15,  14
  4,   4,   5,  16,  15
  5,   5,   6,  17,  16
  6,   6,   7,  18,  17
  7,   7,   8,  19,  18
  8,   8,   9,  20,  19
  9,   9,  10,  21,  20
 10,  10,  11,  22,  21
 11,  12,  13,  24,  23
 12,  13,  14,  25,  24
 13,  14,  15,  26,  25
 14,  15,  16,  27,  26
 15,  16,  17,  28,  27
 16,  17,  18,  29,  28
 17,  18,  19,  30,  29
 18,  19,  20,  31,  30
 19,  20,  21,  32,  31
 20,  21,  22,  33,  32
** ... 480 like lines cut
*Nset, nset=Set-1, generate
   1,  561,    1
*Elset, elset=Set-1, generate
   1,  500,    1
** Section: Section-1
*Solid Section, elset=Set-1, material=Material-1
,
*End Part
**  
**
** ASSEMBLY
**
*Assembly, name=Assembly
**  
*Instance, name=Part-1-1, part=Part-1
*End Instance
**  
*Nset, nset=Set-1, instance=Part-1-1, generate
  1,  11,   1
*Elset, elset=Set-1, instance=Part-1-1, generate
  1,  10,   1
*Elset, elset=_Surf-1_S4, internal, instance=Part-1-1, generate
   1,  491,   10
*Surface, type=ELEMENT, name=Surf-1
_Surf-1_S4, S4
*Elset, elset=_Surf-2_S4, internal, instance=Part-1-1, generate
   1,  491,   10
*Surface, type=ELEMENT, name=Surf-2
_Surf-2_S4, S4
*End Assembly
** 
** MATERIALS
** 
*Material, name=Material-1
*Density
7800.,
*Elastic
 2.1e+11, 0.3
** ----------------------------------------------------------------
** 
** STEP: Step-1
** 
*Step, name=Step-1, nlgeom=NO
20unit
*Static
1., 1., 1e-05, 1.
** 
** BOUNDARY CONDITIONS
** 
** Name: BC-1 Type: 对称/反对称/完全固定
*Boundary
Set-1, ENCASTRE
** 
** LOADS
** 
** Name: Load-1   Type: Pressure
*Dsload
Surf-2, P, 1e+06
** 
** OUTPUT REQUESTS
** 
*Restart, write, frequency=0
** 
** FIELD OUTPUT: F-Output-1
** 
*Output, field, variable=PRESELECT
** 
** HISTORY OUTPUT: H-Output-1
** 
*Output, history, variable=PRESELECT
*End Step
